STM32RF
*SPICE Netlist generated by Advanced Sim server on 2/17/2026 4:24:52 PM
.options MixedSimGenerated

.SAVE allV
.SAVE allI
.SAVE allP

.PLOT {V(+3.3V)} =PLOT(1) =AXIS(1)

*Selected Circuit Analyses:
.TRAN 20.00n 5.000u 0 20.00n
.OP

.END